variable        infile index data.mol
variable        mytemp index 300

# set up simulation

# the following information is saved to restart files
units           real
atom_style      full
boundary        f f f
pair_style      lj/cut/coul/cut 12
#kspace_style    pppm 0.0001
pair_modify     tail no
pair_modify     mix arithmetic
special_bonds   lj 0.0 0.0 0.0 coul 0.0 0.0 0.0

bond_style      harmonic
angle_style     harmonic
dihedral_style  charmm
improper_style  cvff

read_data       data.mol
  orthogonal box = (-5.979 -5.647 -5.5015) to (5.979 5.647 5.5015)
  12 atoms
  12 bonds
  18 angles
  24 dihedrals
  6 impropers

#replicate       5 5 5

#neighbor        2.0 bin
#neigh_modify    delay 0 every 1 check yes page 1000000 one 20000
timestep        1.0

## end information that is saved to restart files

## create velocity profile
#minimize       1e-4 1e-6 10000 10000
velocity        all create  300 314159265 units box
velocity        all zero linear units box
dump            DUMP all custom 2000 mol.lammpstrj id type x y z vx vy vz mol
thermo_style    custom step vol temp press ke pe etotal enthalpy evdwl ecoul epair ebond eangle edihed eimp emol elong etail lx ly lz xy xz yz
thermo          1000
#
## thermostat and integrator

fix             NVT all nvt temp 300 300 100.0

restart         50000 restart.mol.1 restart.mol.2
run             2000000
Step Volume Temp Press KinEng PotEng TotEng Enthalpy E_vdwl E_coul E_pair E_bond E_angle E_dihed E_impro E_mol E_long E_tail Lx Ly Lz Xy Xz Yz
0    1485.9953          300   -63.519775    9.8366732    1.8256965     11.66237    10.285787  -0.20912666    1.9915559    1.7824292  0.042924382 0.00022239737 7.6468019e-05 4.4040706e-05  0.043267288            0            0       11.958       11.294       11.003            0            0            0
Averages over the last 1001 of 2001 rows, steps 1000000 to 2000000:
Volume Temp Press KinEng PotEng TotEng Enthalpy E_vdwl E_coul E_pair E_bond E_angle E_dihed E_impro E_mol E_long E_tail Lx Ly Lz Xy Xz Yz
1486 298.326 -13.2996 9.78178 9.87627 19.658 19.3698 -0.211636 2.00182 1.79018 3.22714 2.50291 1.81845 0.537587 8.08609 0 0 11.958 11.294 11.003 0 0 0
Loop time of 24.5269 on 1 procs for 2000000 steps with 12 atoms

Pair  time (%) = 1.67331 (6.82236)
Bond  time (%) = 18.9529 (77.2739)
Neigh time (%) = 0.139336 (0.568095)
Comm  time (%) = 0.435716 (1.77648)
Outpt time (%) = 0.185823 (0.757632)
Other time (%) = 3.13983 (12.8016)

write_restart   restart.mol
